


31 34  0  0  0  0  0  0  0  0999 V2000
  -18.0808  -41.3390  -48.2059 C   0  0  0  0  0  0  0  0  0  0  0  0
  -19.5946  -41.1584  -48.1239 C   0  0  0  0  0  0  0  0  0  0  0  0
  -19.7884  -41.1237  -46.6334 C   0  0  0  0  0  0  0  0  0  0  0  0
  -18.7142  -41.3110  -45.9265 N   0  0  0  0  0  0  0  0  0  0  0  0
  -17.6816  -41.4424  -46.8028 N   0  0  0  0  0  0  0  0  0  0  0  0
  -17.1039  -44.8543  -50.5580 C   0  0  0  0  0  0  0  0  0  0  0  0
  -17.9873  -44.9384  -49.4817 C   0  0  0  0  0  0  0  0  0  0  0  0
  -18.2846  -43.8030  -48.7202 C   0  0  0  0  0  0  0  0  0  0  0  0
  -17.7048  -42.5624  -49.0247 C   0  0  0  0  0  0  0  0  0  0  0  0
  -16.7883  -42.4994  -50.0860 C   0  0  0  0  0  0  0  0  0  0  0  0
  -16.5048  -43.6306  -50.8525 C   0  0  0  0  0  0  0  0  0  0  0  0
  -16.1161  -45.5204  -52.6102 C   0  0  0  0  0  0  0  0  0  0  0  0
  -16.7497  -45.8803  -51.3899 O   0  0  0  0  0  0  0  0  0  0  0  0
  -16.3664  -41.5324  -46.3535 C   0  0  0  0  0  0  0  0  0  0  0  0
  -15.8114  -40.5145  -45.5591 C   0  0  0  0  0  0  0  0  0  0  0  0
  -14.5202  -40.6194  -45.0311 C   0  0  0  0  0  0  0  0  0  0  0  0
  -13.7576  -41.7505  -45.3158 C   0  0  0  0  0  0  0  0  0  0  0  0
  -14.2632  -42.7579  -46.1363 C   0  0  0  0  0  0  0  0  0  0  0  0
  -15.5619  -42.6484  -46.6357 C   0  0  0  0  0  0  0  0  0  0  0  0
  -12.1308  -41.9178  -44.6511 S   0  0  0  0  0  0  0  0  0  0  0  0
  -12.4619  -42.5209  -43.1195 N   0  0  0  0  0  0  0  0  0  0  0  0
  -11.4332  -42.9724  -45.3521 O   0  0  0  0  0  0  0  0  0  0  0  0
  -11.5531  -40.6105  -44.4477 O   0  0  0  0  0  0  0  0  0  0  0  0
  -12.0772  -43.4588  -43.0187 H   0  0  0  0  0  0  0  0  0  0  0  0
  -12.1528  -41.8580  -42.4096 H   0  0  0  0  0  0  0  0  0  0  0  0
  -21.1210  -40.8848  -46.0355 C   0  0  0  0  0  0  0  0  0  0  0  0
  -21.9496  -41.9466  -45.6521 C   0  0  0  0  0  0  0  0  0  0  0  0
  -23.2062  -41.6881  -45.0985 C   0  0  0  0  0  0  0  0  0  0  0  0
  -23.6369  -40.3738  -44.9276 C   0  0  0  0  0  0  0  0  0  0  0  0
  -22.8177  -39.3135  -45.3133 C   0  0  0  0  0  0  0  0  0  0  0  0
  -21.5637  -39.5674  -45.8680 C   0  0  0  0  0  0  0  0  0  0  0  0
 12 13  1  0
 13  6  1  0
  6  7  1  0
  6 11  2  0
  7  8  2  0
  8  9  1  0
  9 10  2  0
  9  1  1  0
 10 11  1  0
  1  2  1  0
  1  5  1  0
  2  3  1  0
  3  4  2  0
  3 26  1  0
  4  5  1  0
  5 14  1  0
 14 15  1  0
 14 19  2  0
 15 16  2  0
 16 17  1  0
 17 18  2  0
 17 20  1  0
 18 19  1  0
 20 21  1  0
 20 22  2  0
 20 23  2  0
 21 24  1  0
 21 25  1  0
 26 27  1  0
 26 31  2  0
 27 28  2  0
 28 29  1  0
 29 30  2  0
 30 31  1  0
M  END
> <COMPND>
    UNNAMED

> <AUTHOR>
    GENERATED BY OPEN BABEL 3.1.0

> <MASTER>
        0    0    0    0    0    0    0    0   50    0   50    0

> <minimizedAffinity>
-7.99093

> <CNNscore>
0.5027817488

> <CNNaffinity>
5.7796654701

> <CNN_VS>
2.9059102535

> <CNNaffinity_variance>
0.4205388427

$$$$



31 34  0  0  0  0  0  0  0  0999 V2000
  -18.0422  -41.3598  -48.1703 C   0  0  0  0  0  0  0  0  0  0  0  0
  -19.5511  -41.1331  -48.1173 C   0  0  0  0  0  0  0  0  0  0  0  0
  -19.7752  -41.1107  -46.6309 C   0  0  0  0  0  0  0  0  0  0  0  0
  -18.7225  -41.3401  -45.9043 N   0  0  0  0  0  0  0  0  0  0  0  0
  -17.6762  -41.4929  -46.7606 N   0  0  0  0  0  0  0  0  0  0  0  0
  -17.1252  -44.8763  -50.5446 C   0  0  0  0  0  0  0  0  0  0  0  0
  -18.0062  -44.9532  -49.4659 C   0  0  0  0  0  0  0  0  0  0  0  0
  -18.2843  -43.8177  -48.6973 C   0  0  0  0  0  0  0  0  0  0  0  0
  -17.6871  -42.5841  -48.9969 C   0  0  0  0  0  0  0  0  0  0  0  0
  -16.7732  -42.5290  -50.0609 C   0  0  0  0  0  0  0  0  0  0  0  0
  -16.5089  -43.6600  -50.8344 C   0  0  0  0  0  0  0  0  0  0  0  0
  -16.1919  -45.5433  -52.6219 C   0  0  0  0  0  0  0  0  0  0  0  0
  -16.7889  -45.9029  -51.3832 O   0  0  0  0  0  0  0  0  0  0  0  0
  -16.3741  -41.6294  -46.2854 C   0  0  0  0  0  0  0  0  0  0  0  0
  -15.8669  -40.7375  -45.3250 C   0  0  0  0  0  0  0  0  0  0  0  0
  -14.5910  -40.9014  -44.7751 C   0  0  0  0  0  0  0  0  0  0  0  0
  -13.7954  -41.9620  -45.2042 C   0  0  0  0  0  0  0  0  0  0  0  0
  -14.2527  -42.8386  -46.1871 C   0  0  0  0  0  0  0  0  0  0  0  0
  -15.5370  -42.6747  -46.7082 C   0  0  0  0  0  0  0  0  0  0  0  0
  -12.1870  -42.2030  -44.5173 S   0  0  0  0  0  0  0  0  0  0  0  0
  -11.5938  -40.6324  -44.5105 N   0  0  0  0  0  0  0  0  0  0  0  0
  -12.3119  -42.5877  -43.1293 O   0  0  0  0  0  0  0  0  0  0  0  0
  -11.3652  -42.9348  -45.4519 O   0  0  0  0  0  0  0  0  0  0  0  0
  -11.4272  -40.3222  -43.5545 H   0  0  0  0  0  0  0  0  0  0  0  0
  -10.7837  -40.5631  -45.1252 H   0  0  0  0  0  0  0  0  0  0  0  0
  -21.1121  -40.8377  -46.0577 C   0  0  0  0  0  0  0  0  0  0  0  0
  -21.6527  -39.5460  -46.0499 C   0  0  0  0  0  0  0  0  0  0  0  0
  -22.9141  -39.3193  -45.4932 C   0  0  0  0  0  0  0  0  0  0  0  0
  -23.6355  -40.3779  -44.9444 C   0  0  0  0  0  0  0  0  0  0  0  0
  -23.0987  -41.6647  -44.9446 C   0  0  0  0  0  0  0  0  0  0  0  0
  -21.8393  -41.8947  -45.4976 C   0  0  0  0  0  0  0  0  0  0  0  0
 12 13  1  0
 13  6  1  0
  6  7  1  0
  6 11  2  0
  7  8  2  0
  8  9  1  0
  9 10  2  0
  9  1  1  0
 10 11  1  0
  1  2  1  0
  1  5  1  0
  2  3  1  0
  3  4  2  0
  3 26  1  0
  4  5  1  0
  5 14  1  0
 14 15  1  0
 14 19  2  0
 15 16  2  0
 16 17  1  0
 17 18  2  0
 17 20  1  0
 18 19  1  0
 20 21  1  0
 20 22  2  0
 20 23  2  0
 21 24  1  0
 21 25  1  0
 26 27  1  0
 26 31  2  0
 27 28  2  0
 28 29  1  0
 29 30  2  0
 30 31  1  0
M  END
> <COMPND>
    UNNAMED

> <AUTHOR>
    GENERATED BY OPEN BABEL 3.1.0

> <MASTER>
        0    0    0    0    0    0    0    0   50    0   50    0

> <minimizedAffinity>
-7.78501

> <CNNscore>
0.4412443042

> <CNNaffinity>
5.8311657906

> <CNN_VS>
2.5729687214

> <CNNaffinity_variance>
0.3911113441

$$$$



31 34  0  0  0  0  0  0  0  0999 V2000
  -17.6502  -40.8160  -47.3008 C   0  0  0  0  0  0  0  0  0  0  0  0
  -19.1655  -40.6530  -47.3912 C   0  0  0  0  0  0  0  0  0  0  0  0
  -19.5631  -40.9761  -45.9778 C   0  0  0  0  0  0  0  0  0  0  0  0
  -18.5911  -41.3330  -45.1924 N   0  0  0  0  0  0  0  0  0  0  0  0
  -17.4447  -41.2553  -45.9211 N   0  0  0  0  0  0  0  0  0  0  0  0
  -16.2117  -43.6013  -50.3036 C   0  0  0  0  0  0  0  0  0  0  0  0
  -17.5669  -43.2828  -50.2164 C   0  0  0  0  0  0  0  0  0  0  0  0
  -18.0233  -42.3954  -49.2357 C   0  0  0  0  0  0  0  0  0  0  0  0
  -17.1302  -41.8089  -48.3266 C   0  0  0  0  0  0  0  0  0  0  0  0
  -15.7751  -42.1673  -48.4007 C   0  0  0  0  0  0  0  0  0  0  0  0
  -15.3209  -43.0417  -49.3890 C   0  0  0  0  0  0  0  0  0  0  0  0
  -14.6493  -43.8605  -52.0708 C   0  0  0  0  0  0  0  0  0  0  0  0
  -15.6386  -44.4328  -51.2259 O   0  0  0  0  0  0  0  0  0  0  0  0
  -16.2015  -41.4570  -45.3264 C   0  0  0  0  0  0  0  0  0  0  0  0
  -15.0282  -41.0003  -45.9507 C   0  0  0  0  0  0  0  0  0  0  0  0
  -13.7772  -41.1210  -45.3363 C   0  0  0  0  0  0  0  0  0  0  0  0
  -13.6887  -41.7270  -44.0845 C   0  0  0  0  0  0  0  0  0  0  0  0
  -14.8284  -42.2294  -43.4582 C   0  0  0  0  0  0  0  0  0  0  0  0
  -16.0717  -42.0798  -44.0743 C   0  0  0  0  0  0  0  0  0  0  0  0
  -12.1257  -41.8797  -43.2780 S   0  0  0  0  0  0  0  0  0  0  0  0
  -11.1519  -40.9347  -44.2667 N   0  0  0  0  0  0  0  0  0  0  0  0
  -12.1766  -41.2005  -42.0027 O   0  0  0  0  0  0  0  0  0  0  0  0
  -11.6391  -43.2320  -43.4153 O   0  0  0  0  0  0  0  0  0  0  0  0
  -10.7967  -40.1322  -43.7493 H   0  0  0  0  0  0  0  0  0  0  0  0
  -10.4317  -41.5113  -44.7003 H   0  0  0  0  0  0  0  0  0  0  0  0
  -20.9715  -40.8812  -45.5331 C   0  0  0  0  0  0  0  0  0  0  0  0
  -21.6879  -42.0154  -45.1318 C   0  0  0  0  0  0  0  0  0  0  0  0
  -23.0194  -41.8940  -44.7256 C   0  0  0  0  0  0  0  0  0  0  0  0
  -23.6363  -40.6444  -44.7199 C   0  0  0  0  0  0  0  0  0  0  0  0
  -22.9286  -39.5131  -45.1243 C   0  0  0  0  0  0  0  0  0  0  0  0
  -21.6003  -39.6305  -45.5321 C   0  0  0  0  0  0  0  0  0  0  0  0
 12 13  1  0
 13  6  1  0
  6  7  1  0
  6 11  2  0
  7  8  2  0
  8  9  1  0
  9 10  2  0
  9  1  1  0
 10 11  1  0
  1  2  1  0
  1  5  1  0
  2  3  1  0
  3  4  2  0
  3 26  1  0
  4  5  1  0
  5 14  1  0
 14 15  1  0
 14 19  2  0
 15 16  2  0
 16 17  1  0
 17 18  2  0
 17 20  1  0
 18 19  1  0
 20 21  1  0
 20 22  2  0
 20 23  2  0
 21 24  1  0
 21 25  1  0
 26 27  1  0
 26 31  2  0
 27 28  2  0
 28 29  1  0
 29 30  2  0
 30 31  1  0
M  END
> <COMPND>
    UNNAMED

> <AUTHOR>
    GENERATED BY OPEN BABEL 3.1.0

> <MASTER>
        0    0    0    0    0    0    0    0   50    0   50    0

> <minimizedAffinity>
-7.59842

> <CNNscore>
0.3813094795

> <CNNaffinity>
5.8740272522

> <CNN_VS>
2.2398223877

> <CNNaffinity_variance>
0.2006143779

$$$$



31 34  0  0  0  0  0  0  0  0999 V2000
  -18.0302  -42.3487  -46.1603 C   0  0  0  0  0  0  0  0  0  0  0  0
  -19.1211  -41.5359  -45.4674 C   0  0  0  0  0  0  0  0  0  0  0  0
  -20.0013  -41.1995  -46.6388 C   0  0  0  0  0  0  0  0  0  0  0  0
  -19.5705  -41.6061  -47.7955 N   0  0  0  0  0  0  0  0  0  0  0  0
  -18.4149  -42.2879  -47.5700 N   0  0  0  0  0  0  0  0  0  0  0  0
  -14.1176  -40.6688  -45.3159 C   0  0  0  0  0  0  0  0  0  0  0  0
  -15.2535  -39.8595  -45.3321 C   0  0  0  0  0  0  0  0  0  0  0  0
  -16.5084  -40.4073  -45.6199 C   0  0  0  0  0  0  0  0  0  0  0  0
  -16.6484  -41.7760  -45.8938 C   0  0  0  0  0  0  0  0  0  0  0  0
  -15.4924  -42.5720  -45.9121 C   0  0  0  0  0  0  0  0  0  0  0  0
  -14.2443  -42.0254  -45.6107 C   0  0  0  0  0  0  0  0  0  0  0  0
  -12.1294  -41.0339  -44.0728 C   0  0  0  0  0  0  0  0  0  0  0  0
  -12.8440  -40.2618  -45.0286 O   0  0  0  0  0  0  0  0  0  0  0  0
  -17.7656  -42.9607  -48.6024 C   0  0  0  0  0  0  0  0  0  0  0  0
  -18.1561  -44.2613  -48.9644 C   0  0  0  0  0  0  0  0  0  0  0  0
  -17.5725  -44.9261  -50.0481 C   0  0  0  0  0  0  0  0  0  0  0  0
  -16.5656  -44.2926  -50.7739 C   0  0  0  0  0  0  0  0  0  0  0  0
  -16.1257  -43.0198  -50.4132 C   0  0  0  0  0  0  0  0  0  0  0  0
  -16.7347  -42.3612  -49.3440 C   0  0  0  0  0  0  0  0  0  0  0  0
  -15.8213  -45.1006  -52.1558 S   0  0  0  0  0  0  0  0  0  0  0  0
  -17.1590  -45.8093  -52.8819 N   0  0  0  0  0  0  0  0  0  0  0  0
  -15.3408  -44.1071  -53.0897 O   0  0  0  0  0  0  0  0  0  0  0  0
  -14.9954  -46.1907  -51.6932 O   0  0  0  0  0  0  0  0  0  0  0  0
  -17.3085  -45.4137  -53.8088 H   0  0  0  0  0  0  0  0  0  0  0  0
  -17.0681  -46.8244  -52.8646 H   0  0  0  0  0  0  0  0  0  0  0  0
  -21.2707  -40.4596  -46.4609 C   0  0  0  0  0  0  0  0  0  0  0  0
  -22.4100  -40.7740  -47.2120 C   0  0  0  0  0  0  0  0  0  0  0  0
  -23.5911  -40.0507  -47.0268 C   0  0  0  0  0  0  0  0  0  0  0  0
  -23.6369  -39.0153  -46.0951 C   0  0  0  0  0  0  0  0  0  0  0  0
  -22.5033  -38.6948  -45.3493 C   0  0  0  0  0  0  0  0  0  0  0  0
  -21.3221  -39.4131  -45.5325 C   0  0  0  0  0  0  0  0  0  0  0  0
 12 13  1  0
 13  6  1  0
  6  7  1  0
  6 11  2  0
  7  8  2  0
  8  9  1  0
  9 10  2  0
  9  1  1  0
 10 11  1  0
  1  2  1  0
  1  5  1  0
  2  3  1  0
  3  4  2  0
  3 26  1  0
  4  5  1  0
  5 14  1  0
 14 15  1  0
 14 19  2  0
 15 16  2  0
 16 17  1  0
 17 18  2  0
 17 20  1  0
 18 19  1  0
 20 21  1  0
 20 22  2  0
 20 23  2  0
 21 24  1  0
 21 25  1  0
 26 27  1  0
 26 31  2  0
 27 28  2  0
 28 29  1  0
 29 30  2  0
 30 31  1  0
M  END
> <COMPND>
    UNNAMED

> <AUTHOR>
    GENERATED BY OPEN BABEL 3.1.0

> <MASTER>
        0    0    0    0    0    0    0    0   50    0   50    0

> <minimizedAffinity>
-8.21474

> <CNNscore>
0.3470740616

> <CNNaffinity>
5.4919447899

> <CNN_VS>
1.9061115980

> <CNNaffinity_variance>
0.5883436203

$$$$



31 34  0  0  0  0  0  0  0  0999 V2000
  -17.8629  -42.4204  -46.2209 C   0  0  0  0  0  0  0  0  0  0  0  0
  -18.9824  -41.6414  -45.5346 C   0  0  0  0  0  0  0  0  0  0  0  0
  -19.8700  -41.3400  -46.7100 C   0  0  0  0  0  0  0  0  0  0  0  0
  -19.4226  -41.7372  -47.8636 N   0  0  0  0  0  0  0  0  0  0  0  0
  -18.2454  -42.3789  -47.6318 N   0  0  0  0  0  0  0  0  0  0  0  0
  -14.0196  -40.5694  -45.4165 C   0  0  0  0  0  0  0  0  0  0  0  0
  -15.0195  -39.8726  -46.0952 C   0  0  0  0  0  0  0  0  0  0  0  0
  -16.2498  -40.4826  -46.3629 C   0  0  0  0  0  0  0  0  0  0  0  0
  -16.5018  -41.8005  -45.9533 C   0  0  0  0  0  0  0  0  0  0  0  0
  -15.4740  -42.5034  -45.3054 C   0  0  0  0  0  0  0  0  0  0  0  0
  -14.2531  -41.8874  -45.0272 C   0  0  0  0  0  0  0  0  0  0  0  0
  -11.9845  -40.9066  -44.2437 C   0  0  0  0  0  0  0  0  0  0  0  0
  -12.7885  -40.0810  -45.0756 O   0  0  0  0  0  0  0  0  0  0  0  0
  -17.5711  -43.0342  -48.6593 C   0  0  0  0  0  0  0  0  0  0  0  0
  -18.0660  -44.2407  -49.1832 C   0  0  0  0  0  0  0  0  0  0  0  0
  -17.4502  -44.8757  -50.2670 C   0  0  0  0  0  0  0  0  0  0  0  0
  -16.3068  -44.3101  -50.8280 C   0  0  0  0  0  0  0  0  0  0  0  0
  -15.7660  -43.1371  -50.3034 C   0  0  0  0  0  0  0  0  0  0  0  0
  -16.4060  -42.5039  -49.2371 C   0  0  0  0  0  0  0  0  0  0  0  0
  -15.5168  -45.0805  -52.2061 S   0  0  0  0  0  0  0  0  0  0  0  0
  -14.9480  -43.7441  -53.0482 N   0  0  0  0  0  0  0  0  0  0  0  0
  -14.3442  -45.7922  -51.7494 O   0  0  0  0  0  0  0  0  0  0  0  0
  -16.5111  -45.6924  -53.0553 O   0  0  0  0  0  0  0  0  0  0  0  0
  -13.9296  -43.7521  -53.0767 H   0  0  0  0  0  0  0  0  0  0  0  0
  -15.3965  -43.6911  -53.9620 H   0  0  0  0  0  0  0  0  0  0  0  0
  -21.1639  -40.6423  -46.5389 C   0  0  0  0  0  0  0  0  0  0  0  0
  -21.3481  -39.6818  -45.5365 C   0  0  0  0  0  0  0  0  0  0  0  0
  -22.5848  -39.0470  -45.3951 C   0  0  0  0  0  0  0  0  0  0  0  0
  -23.6366  -39.3690  -46.2507 C   0  0  0  0  0  0  0  0  0  0  0  0
  -23.4597  -40.3289  -47.2463 C   0  0  0  0  0  0  0  0  0  0  0  0
  -22.2276  -40.9661  -47.3895 C   0  0  0  0  0  0  0  0  0  0  0  0
 12 13  1  0
 13  6  1  0
  6  7  1  0
  6 11  2  0
  7  8  2  0
  8  9  1  0
  9 10  2  0
  9  1  1  0
 10 11  1  0
  1  2  1  0
  1  5  1  0
  2  3  1  0
  3  4  2  0
  3 26  1  0
  4  5  1  0
  5 14  1  0
 14 15  1  0
 14 19  2  0
 15 16  2  0
 16 17  1  0
 17 18  2  0
 17 20  1  0
 18 19  1  0
 20 21  1  0
 20 22  2  0
 20 23  2  0
 21 24  1  0
 21 25  1  0
 26 27  1  0
 26 31  2  0
 27 28  2  0
 28 29  1  0
 29 30  2  0
 30 31  1  0
M  END
> <COMPND>
    UNNAMED

> <AUTHOR>
    GENERATED BY OPEN BABEL 3.1.0

> <MASTER>
        0    0    0    0    0    0    0    0   50    0   50    0

> <minimizedAffinity>
-7.89925

> <CNNscore>
0.2552938163

> <CNNaffinity>
5.2775082588

> <CNN_VS>
1.3473151922

> <CNNaffinity_variance>
0.7618126869

$$$$



