


19 21  0  0  0  0  0  0  0  0999 V2000
  -15.2601  -43.5093  -51.2937 C   0  0  0  0  0  0  0  0  0  0  0  0
  -16.2018  -43.1369  -50.1509 C   0  0  0  0  0  0  0  0  0  0  0  0
  -17.5647  -43.0083  -50.4018 C   0  0  0  0  0  0  0  0  0  0  0  0
  -18.4400  -42.6715  -49.3766 C   0  0  0  0  0  0  0  0  0  0  0  0
  -17.9477  -42.4564  -48.0635 C   0  0  0  0  0  0  0  0  0  0  0  0
  -17.6716  -42.0263  -45.8825 C   0  0  0  0  0  0  0  0  0  0  0  0
  -17.8043  -41.7136  -44.5000 C   0  0  0  0  0  0  0  0  0  0  0  0
  -16.6922  -41.6843  -43.6740 C   0  0  0  0  0  0  0  0  0  0  0  0
  -15.4332  -41.9651  -44.1977 C   0  0  0  0  0  0  0  0  0  0  0  0
  -15.3158  -42.2708  -45.5505 C   0  0  0  0  0  0  0  0  0  0  0  0
  -16.4349  -42.3018  -46.3938 C   0  0  0  0  0  0  0  0  0  0  0  0
  -16.6063  -42.5835  -47.8141 C   0  0  0  0  0  0  0  0  0  0  0  0
  -15.7167  -42.9266  -48.8639 C   0  0  0  0  0  0  0  0  0  0  0  0
  -18.5682  -42.1222  -46.8987 N   0  0  0  0  0  0  0  0  0  0  0  0
  -19.0580  -41.4287  -43.9492 O   0  0  0  0  0  0  0  0  0  0  0  0
  -13.8716  -41.9299  -43.0440 Br  0  0  0  0  0  0  0  0  0  0  0  0
  -13.6130  -42.6654  -46.3615 Br  0  0  0  0  0  0  0  0  0  0  0  0
  -19.4139  -41.9900  -46.8180 H   0  0  0  0  0  0  0  0  0  0  0  0
  -18.9534  -41.0872  -43.1782 H   0  0  0  0  0  0  0  0  0  0  0  0
  4  3  1  0
  4  5  2  0
 18 14  1  0
  3  2  2  0
 14  5  1  0
 14  6  1  0
  5 12  1  0
  2  1  1  0
  2 13  1  0
 15 19  1  0
 15  7  1  0
  6  7  2  0
  6 11  1  0
 12 13  2  0
 12 11  1  0
  7  8  1  0
 11 10  2  0
  8  9  2  0
 10  9  1  0
 10 17  1  0
  9 16  1  0
M  END
> <REMARK>
 800 SITE_DESCRIPTION: binding site for residue Q5Q A 802                 

> <HET>
 Q5Q  A 802      26                                                       

> <HETNAM>
     Q5Q 3,6-DIBROMO-1-(HYDROXYMETHYL)CARBAZOLE                           

> <HETSYN>
     Q5Q 3,4-BIS(BROMANYL)-6-METHYL-9~{H}-CARBAZOL-1-OL                   

> <FORMUL>
   3  Q5Q    C13 H9 BR2 N O                                               

> <minimizedAffinity>
-4.29793

> <CNNscore>
0.4508136213

> <CNNaffinity>
4.7875466347

> <CNN_VS>
2.1582913399

> <CNNaffinity_variance>
0.4441639781

$$$$



19 21  0  0  0  0  0  0  0  0999 V2000
  -13.4157  -39.9437  -44.1359 C   0  0  0  0  0  0  0  0  0  0  0  0
  -14.1700  -40.8342  -45.1207 C   0  0  0  0  0  0  0  0  0  0  0  0
  -13.4937  -41.8638  -45.7685 C   0  0  0  0  0  0  0  0  0  0  0  0
  -14.1605  -42.6869  -46.6676 C   0  0  0  0  0  0  0  0  0  0  0  0
  -15.5394  -42.4821  -46.9309 C   0  0  0  0  0  0  0  0  0  0  0  0
  -17.6536  -42.5645  -47.6669 C   0  0  0  0  0  0  0  0  0  0  0  0
  -18.8937  -42.8575  -48.3018 C   0  0  0  0  0  0  0  0  0  0  0  0
  -20.0220  -42.1016  -48.0271 C   0  0  0  0  0  0  0  0  0  0  0  0
  -19.9456  -41.0474  -47.1210 C   0  0  0  0  0  0  0  0  0  0  0  0
  -18.7281  -40.7712  -46.5055 C   0  0  0  0  0  0  0  0  0  0  0  0
  -17.5814  -41.5295  -46.7778 C   0  0  0  0  0  0  0  0  0  0  0  0
  -16.2074  -41.4696  -46.2935 C   0  0  0  0  0  0  0  0  0  0  0  0
  -15.5223  -40.6314  -45.3773 C   0  0  0  0  0  0  0  0  0  0  0  0
  -16.4185  -43.1247  -47.7481 N   0  0  0  0  0  0  0  0  0  0  0  0
  -18.9972  -43.9117  -49.2151 O   0  0  0  0  0  0  0  0  0  0  0  0
  -21.5246  -39.9874  -46.7290 Br  0  0  0  0  0  0  0  0  0  0  0  0
  -18.5288  -39.3279  -45.2445 Br  0  0  0  0  0  0  0  0  0  0  0  0
  -16.2182  -43.7950  -48.2478 H   0  0  0  0  0  0  0  0  0  0  0  0
  -19.7311  -43.8442  -49.6378 H   0  0  0  0  0  0  0  0  0  0  0  0
  4  3  1  0
  4  5  2  0
 18 14  1  0
  3  2  2  0
 14  5  1  0
 14  6  1  0
  5 12  1  0
  2  1  1  0
  2 13  1  0
 15 19  1  0
 15  7  1  0
  6  7  2  0
  6 11  1  0
 12 13  2  0
 12 11  1  0
  7  8  1  0
 11 10  2  0
  8  9  2  0
 10  9  1  0
 10 17  1  0
  9 16  1  0
M  END
> <REMARK>
 800 SITE_DESCRIPTION: binding site for residue Q5Q A 802                 

> <HET>
 Q5Q  A 802      26                                                       

> <HETNAM>
     Q5Q 3,6-DIBROMO-1-(HYDROXYMETHYL)CARBAZOLE                           

> <HETSYN>
     Q5Q 3,4-BIS(BROMANYL)-6-METHYL-9~{H}-CARBAZOL-1-OL                   

> <FORMUL>
   3  Q5Q    C13 H9 BR2 N O                                               

> <minimizedAffinity>
-4.98364

> <CNNscore>
0.4075266123

> <CNNaffinity>
4.7480478287

> <CNN_VS>
1.9349558353

> <CNNaffinity_variance>
0.4704349935

$$$$



19 21  0  0  0  0  0  0  0  0999 V2000
  -20.1409  -42.1741  -46.9240 C   0  0  0  0  0  0  0  0  0  0  0  0
  -18.8611  -41.3417  -46.9516 C   0  0  0  0  0  0  0  0  0  0  0  0
  -18.7254  -40.3266  -47.8940 C   0  0  0  0  0  0  0  0  0  0  0  0
  -17.5700  -39.5559  -47.9364 C   0  0  0  0  0  0  0  0  0  0  0  0
  -16.5186  -39.8001  -47.0157 C   0  0  0  0  0  0  0  0  0  0  0  0
  -14.6281  -39.7924  -45.8140 C   0  0  0  0  0  0  0  0  0  0  0  0
  -13.3488  -39.5520  -45.2375 C   0  0  0  0  0  0  0  0  0  0  0  0
  -12.8994  -40.3187  -44.1744 C   0  0  0  0  0  0  0  0  0  0  0  0
  -13.7050  -41.3320  -43.6622 C   0  0  0  0  0  0  0  0  0  0  0  0
  -14.9543  -41.5570  -44.2331 C   0  0  0  0  0  0  0  0  0  0  0  0
  -15.4169  -40.7872  -45.3092 C   0  0  0  0  0  0  0  0  0  0  0  0
  -16.6505  -40.7984  -46.0864 C   0  0  0  0  0  0  0  0  0  0  0  0
  -17.8312  -41.5829  -46.0476 C   0  0  0  0  0  0  0  0  0  0  0  0
  -15.3041  -39.2107  -46.8389 N   0  0  0  0  0  0  0  0  0  0  0  0
  -12.5208  -38.5395  -45.7330 O   0  0  0  0  0  0  0  0  0  0  0  0
  -13.0823  -42.4069  -42.1698 Br  0  0  0  0  0  0  0  0  0  0  0  0
  -16.1321  -42.9414  -43.5934 Br  0  0  0  0  0  0  0  0  0  0  0  0
  -15.0060  -38.5580  -47.3125 H   0  0  0  0  0  0  0  0  0  0  0  0
  -11.7379  -38.6399  -45.4185 H   0  0  0  0  0  0  0  0  0  0  0  0
  4  3  1  0
  4  5  2  0
 18 14  1  0
  3  2  2  0
 14  5  1  0
 14  6  1  0
  5 12  1  0
  2  1  1  0
  2 13  1  0
 15 19  1  0
 15  7  1  0
  6  7  2  0
  6 11  1  0
 12 13  2  0
 12 11  1  0
  7  8  1  0
 11 10  2  0
  8  9  2  0
 10  9  1  0
 10 17  1  0
  9 16  1  0
M  END
> <REMARK>
 800 SITE_DESCRIPTION: binding site for residue Q5Q A 802                 

> <HET>
 Q5Q  A 802      26                                                       

> <HETNAM>
     Q5Q 3,6-DIBROMO-1-(HYDROXYMETHYL)CARBAZOLE                           

> <HETSYN>
     Q5Q 3,4-BIS(BROMANYL)-6-METHYL-9~{H}-CARBAZOL-1-OL                   

> <FORMUL>
   3  Q5Q    C13 H9 BR2 N O                                               

> <minimizedAffinity>
-4.78535

> <CNNscore>
0.3530883491

> <CNNaffinity>
4.7729539871

> <CNN_VS>
1.6852744818

> <CNNaffinity_variance>
0.4174540043

$$$$



19 21  0  0  0  0  0  0  0  0999 V2000
  -12.2126  -42.9995  -45.8108 C   0  0  0  0  0  0  0  0  0  0  0  0
  -13.2974  -41.9588  -45.5429 C   0  0  0  0  0  0  0  0  0  0  0  0
  -13.0022  -40.8500  -44.7552 C   0  0  0  0  0  0  0  0  0  0  0  0
  -13.9736  -39.8900  -44.4995 C   0  0  0  0  0  0  0  0  0  0  0  0
  -15.2764  -40.0350  -45.0422 C   0  0  0  0  0  0  0  0  0  0  0  0
  -17.4209  -39.8145  -45.6512 C   0  0  0  0  0  0  0  0  0  0  0  0
  -18.7684  -39.4120  -45.8721 C   0  0  0  0  0  0  0  0  0  0  0  0
  -19.6178  -40.1874  -46.6450 C   0  0  0  0  0  0  0  0  0  0  0  0
  -19.1512  -41.3695  -47.2134 C   0  0  0  0  0  0  0  0  0  0  0  0
  -17.8315  -41.7521  -46.9914 C   0  0  0  0  0  0  0  0  0  0  0  0
  -16.9653  -40.9749  -46.2104 C   0  0  0  0  0  0  0  0  0  0  0  0
  -15.5690  -41.1255  -45.8188 C   0  0  0  0  0  0  0  0  0  0  0  0
  -14.5744  -42.1031  -46.0762 C   0  0  0  0  0  0  0  0  0  0  0  0
  -16.3945  -39.2635  -44.9520 N   0  0  0  0  0  0  0  0  0  0  0  0
  -19.2614  -38.2285  -45.3132 O   0  0  0  0  0  0  0  0  0  0  0  0
  -20.3358  -42.4579  -48.3009 Br  0  0  0  0  0  0  0  0  0  0  0  0
  -17.1031  -43.3748  -47.7327 Br  0  0  0  0  0  0  0  0  0  0  0  0
  -16.4435  -38.5267  -44.5117 H   0  0  0  0  0  0  0  0  0  0  0  0
  -20.1086  -38.2211  -45.3768 H   0  0  0  0  0  0  0  0  0  0  0  0
  4  3  1  0
  4  5  2  0
 18 14  1  0
  3  2  2  0
 14  5  1  0
 14  6  1  0
  5 12  1  0
  2  1  1  0
  2 13  1  0
 15 19  1  0
 15  7  1  0
  6  7  2  0
  6 11  1  0
 12 13  2  0
 12 11  1  0
  7  8  1  0
 11 10  2  0
  8  9  2  0
 10  9  1  0
 10 17  1  0
  9 16  1  0
M  END
> <REMARK>
 800 SITE_DESCRIPTION: binding site for residue Q5Q A 802                 

> <HET>
 Q5Q  A 802      26                                                       

> <HETNAM>
     Q5Q 3,6-DIBROMO-1-(HYDROXYMETHYL)CARBAZOLE                           

> <HETSYN>
     Q5Q 3,4-BIS(BROMANYL)-6-METHYL-9~{H}-CARBAZOL-1-OL                   

> <FORMUL>
   3  Q5Q    C13 H9 BR2 N O                                               

> <minimizedAffinity>
-4.37804

> <CNNscore>
0.3146186471

> <CNNaffinity>
4.8470463753

> <CNN_VS>
1.5249711275

> <CNNaffinity_variance>
0.3707333505

$$$$



19 21  0  0  0  0  0  0  0  0999 V2000
  -13.3970  -42.4667  -42.1525 C   0  0  0  0  0  0  0  0  0  0  0  0
  -13.7652  -41.5861  -43.3445 C   0  0  0  0  0  0  0  0  0  0  0  0
  -12.8178  -40.7103  -43.8665 C   0  0  0  0  0  0  0  0  0  0  0  0
  -13.1307  -39.9007  -44.9515 C   0  0  0  0  0  0  0  0  0  0  0  0
  -14.4221  -39.9628  -45.5356 C   0  0  0  0  0  0  0  0  0  0  0  0
  -16.2682  -39.6966  -46.7763 C   0  0  0  0  0  0  0  0  0  0  0  0
  -17.2680  -39.3193  -47.7168 C   0  0  0  0  0  0  0  0  0  0  0  0
  -18.5240  -39.9036  -47.6830 C   0  0  0  0  0  0  0  0  0  0  0  0
  -18.8124  -40.8701  -46.7234 C   0  0  0  0  0  0  0  0  0  0  0  0
  -17.8266  -41.2319  -45.8099 C   0  0  0  0  0  0  0  0  0  0  0  0
  -16.5538  -40.6456  -45.8357 C   0  0  0  0  0  0  0  0  0  0  0  0
  -15.3560  -40.8251  -45.0238 C   0  0  0  0  0  0  0  0  0  0  0  0
  -15.0323  -41.6488  -43.9158 C   0  0  0  0  0  0  0  0  0  0  0  0
  -14.9847  -39.2963  -46.5810 N   0  0  0  0  0  0  0  0  0  0  0  0
  -17.0032  -38.3516  -48.6914 O   0  0  0  0  0  0  0  0  0  0  0  0
  -20.5693  -41.6955  -46.6740 Br  0  0  0  0  0  0  0  0  0  0  0  0
  -18.1397  -42.5546  -44.4441 Br  0  0  0  0  0  0  0  0  0  0  0  0
  -14.5811  -38.7022  -47.0536 H   0  0  0  0  0  0  0  0  0  0  0  0
  -17.7346  -38.1062  -49.0474 H   0  0  0  0  0  0  0  0  0  0  0  0
  4  3  1  0
  4  5  2  0
 18 14  1  0
  3  2  2  0
 14  5  1  0
 14  6  1  0
  5 12  1  0
  2  1  1  0
  2 13  1  0
 15 19  1  0
 15  7  1  0
  6  7  2  0
  6 11  1  0
 12 13  2  0
 12 11  1  0
  7  8  1  0
 11 10  2  0
  8  9  2  0
 10  9  1  0
 10 17  1  0
  9 16  1  0
M  END
> <REMARK>
 800 SITE_DESCRIPTION: binding site for residue Q5Q A 802                 

> <HET>
 Q5Q  A 802      26                                                       

> <HETNAM>
     Q5Q 3,6-DIBROMO-1-(HYDROXYMETHYL)CARBAZOLE                           

> <HETSYN>
     Q5Q 3,4-BIS(BROMANYL)-6-METHYL-9~{H}-CARBAZOL-1-OL                   

> <FORMUL>
   3  Q5Q    C13 H9 BR2 N O                                               

> <minimizedAffinity>
-5.34585

> <CNNscore>
0.1391695738

> <CNNaffinity>
4.5905761719

> <CNN_VS>
0.6388685107

> <CNNaffinity_variance>
0.4024150372

$$$$



